12
b3lyp/cc-pVTZ
C	0.0000000000	0.0000000000	0.0037958544
H	0.0000000000	0.0000000000	1.0858426257
C	1.2043913115	0.0000000000	-0.6916130345
H	2.1414829369	0.0000000000	-0.1506010898
C	1.2043913148	0.0000000000	-2.0823869607
H	2.1414829410	0.0000000000	-2.6233989125
C	0.0000000000	0.0000000000	-2.7777958542
H	0.0000000000	0.0000000000	-3.8598426341
C	-1.2043913145	0.0000000000	-2.0823869602
H	-2.1414829411	0.0000000000	-2.6233989114
C	-1.2043913118	0.0000000000	-0.6916130340
H	-2.1414829369	0.0000000000	-0.1506010887
